Questionable use of curly braces in ".meas tran deltail1il1 param {iriple/il1}"
    Error: undefined symbol in: "[iriple]/il1"
Questionable use of curly braces in ".meas tran deltail2il2 param {iriplel2/il2}"
    Error: undefined symbol in: "[iriplel2]/il2"
LTspice 24.0.12 for Windows
Circuit: * C:\Users\aguay\OneDrive\Documentos\GitHub\AnalisisSEPIC\Simulacion\Draft4.asc
Start Time: Thu Sep 11 01:16:49 2025
solver = Normal
Maximum thread count: 12
tnom = 27
temp = 27
method = modified trap
Direct Newton iteration for .op point succeeded.
Total elapsed time: 10.864 seconds.

