Questionable use of curly braces in ".meas tran deltail1il1 param {iriple/il1}"
    Error: undefined symbol in: "[iriple]/il1"
Questionable use of curly braces in ".meas tran deltail2il2 param {iriplel2/il2}"
    Error: undefined symbol in: "[iriplel2]/il2"
LTspice 24.0.12 for Windows
Circuit: * C:\Users\aguay\OneDrive\Documentos\GitHub\AnalisisSEPIC\Simulacion\Draft4.asc
Start Time: Sun Sep  7 17:14:24 2025
solver = Normal
Maximum thread count: 12
tnom = 27
temp = 27
method = modified trap
Direct Newton iteration for .op point succeeded.

il1max: MAX(i(l1))=0.148382 FROM 0.98 TO 0.980017
il1min: MIN(i(l1))=0.0817089 FROM 0.98 TO 0.980017
iriple: il1max-il1min=0.0666733
il2max: MAX(i(l2))=0.158356 FROM 0.98 TO 0.980017
il2min: MIN(i(l2))=0.0916831 FROM 0.98 TO 0.980017
il1: AVG(i(l1))=0.120171 FROM 1 TO 2
deltail1il1: (iriple/il1)=0.554821
deltail2il2: (iriplel2/il2)=0.555522
il2: AVG(i(l2))=0.120019 FROM 1 TO 2
iriplel2: il2max-il2min=0.0666733

Total elapsed time: 32.058 seconds.

