LTspice 24.0.12 for Windows
Circuit: * C:\Users\aguay\OneDrive\Documentos\GitHub\AnalisisSEPIC\Algop\Draft1.asc
Start Time: Fri Sep 12 18:51:13 2025
solver = Normal
Maximum thread count: 12
tnom = 27
temp = 27
method = modified trap
.OP point found by inspection.
Total elapsed time: 53.201 seconds.

