LTspice 24.0.12 for Windows
Circuit: * C:\Users\Lenovo\Documents\GitHub\AnalisisSEPIC\Algop\Draft1.asc
Start Time: Fri Sep 12 11:32:23 2025
solver = Normal
Maximum thread count: 8
tnom = 27
temp = 27
method = modified trap
.OP point found by inspection.
Total elapsed time: 0.426 seconds.

